Circuit: * I:\WIN\Desktop\Draft1.asc

Direct Newton iteration for .op point succeeded.

Date: Wed Jan 26 15:12:54 2022
Total elapsed time: 0.050 seconds.

tnom = 27
temp = 27
method = modified trap
totiter = 2037
traniter = 2034
tranpoints = 1018
accept = 1018
rejected = 0
matrix size = 3
fillins = 0
solver = Normal
Matrix Compiler1: 50 bytes object code size  0.0/0.0/[0.0]
Matrix Compiler2: off  [0.0]/0.0/0.3

