Circuit: * I:\ECE270\Thevenin.asc

Direct Newton iteration for .op point succeeded.

Date: Sun May 01 15:45:30 2022
Total elapsed time: 0.107 seconds.

tnom = 27
temp = 27
method = modified trap
totiter = 20037
traniter = 20034
tranpoints = 10018
accept = 10018
rejected = 0
matrix size = 4
fillins = 0
solver = Normal
Matrix Compiler1:       6 opcodes  0.0/[0.0]/0.0
Matrix Compiler2: off  [0.0]/0.0/0.0

