Circuit: * I:\ECE270\week2\Draft1.asc

Direct Newton iteration for .op point succeeded.

Date: Wed Feb 16 15:00:52 2022
Total elapsed time: 0.046 seconds.

tnom = 27
temp = 27
method = modified trap
totiter = 77
traniter = 74
tranpoints = 38
accept = 38
rejected = 0
matrix size = 4
fillins = 0
solver = Normal
Matrix Compiler1: 100 bytes object code size
Matrix Compiler2: 248 bytes object code size
