Circuit: * I:\ECE270\bench exam\BENCH.asc

Direct Newton iteration for .op point succeeded.

Date: Mon May 02 12:21:24 2022
Total elapsed time: 0.097 seconds.

tnom = 27
temp = 27
method = modified trap
totiter = 4107
traniter = 4074
tranpoints = 1292
accept = 935
rejected = 357
matrix size = 17
fillins = 7
solver = Normal
Matrix Compiler1: 1.10 KB object code size  0.2/0.1/[0.1]
Matrix Compiler2: 1.64 KB object code size  0.2/0.2/[0.1]

