Circuit: * I:\ECE270\bench exam\Draft2.asc

R4: both pins shorted together -- ignoring.
Direct Newton iteration for .op point succeeded.

Date: Mon May 02 15:02:54 2022
Total elapsed time: 0.060 seconds.

tnom = 27
temp = 27
method = modified trap
totiter = 77
traniter = 74
tranpoints = 38
accept = 38
rejected = 0
matrix size = 4
fillins = 0
solver = Normal
Matrix Compiler1: 154 bytes object code size
Matrix Compiler2: 262 bytes object code size
