Circuit: * I:\ECE270\bench exam\Draft1.asc

Direct Newton iteration for .op point succeeded.

Date: Mon May 02 14:44:24 2022
Total elapsed time: 0.060 seconds.

tnom = 27
temp = 27
method = modified trap
totiter = 77
traniter = 74
tranpoints = 38
accept = 38
rejected = 0
matrix size = 3
fillins = 0
solver = Normal
Matrix Compiler1: 86 bytes object code size
Matrix Compiler2: 163 bytes object code size
