Circuit: * I:\ECE270\bench exam\RC.asc

Limiting rise time of source v1 to 0.005
Limiting fall time of source v1 to 0.005
.OP point found by inspection.

Date: Mon May 02 12:28:02 2022
Total elapsed time: 0.044 seconds.

tnom = 27
temp = 27
method = modified trap
totiter = 526
traniter = 526
tranpoints = 264
accept = 231
rejected = 33
matrix size = 3
fillins = 0
solver = Normal
Matrix Compiler1: 50 bytes object code size  0.0/0.0/[0.0]
Matrix Compiler2:      15 opcodes  0.0/[0.0]/0.0

